MODEL 1
REMARK VINA RESULT:    -6.874      0.000      0.000
REMARK INTER + INTRA:          -8.953
REMARK INTER:                  -8.682
REMARK INTRA:                  -0.271
REMARK UNBOUND:                -0.271
REMARK  Name = 
REMARK  6 active torsions:
REMARK  status: ('A' for Active; 'I' for Inactive)
REMARK    1  A    between atoms: C_1  and  O_2
REMARK    2  A    between atoms: O_2  and  C_3
REMARK    3  A    between atoms: C_7  and  C_8
REMARK    4  A    between atoms: C_8  and  O_10
REMARK    5  A    between atoms: O_10  and  C_11
REMARK    6  A    between atoms: C_15  and  O_16
REMARK                            x       y       z     vdW  Elec       q    Type
REMARK                         _______ _______ _______ _____ _____    ______ ____
ROOT
ATOM      1  C   UNL     1      -1.595 -16.109  14.105  0.00  0.00    +0.000 C 
ATOM      2  O   UNL     1      -1.657 -15.661  12.966  0.00  0.00    +0.000 OA
ENDROOT
BRANCH   1   7
ATOM      3  C   UNL     1       1.292 -18.528  13.855  0.00  0.00    +0.000 A 
ATOM      4  C   UNL     1       1.373 -19.022  15.156  0.00  0.00    +0.000 A 
ATOM      5  C   UNL     1       0.466 -18.588  16.130  0.00  0.00    +0.000 A 
ATOM      6  C   UNL     1      -0.515 -17.646  15.813  0.00  0.00    +0.000 A 
ATOM      7  C   UNL     1      -0.593 -17.131  14.514  0.00  0.00    +0.000 A 
ATOM      8  C   UNL     1       0.300 -17.598  13.537  0.00  0.00    +0.000 A 
BRANCH   3  10
ATOM      9  C   UNL     1       3.445 -19.245  13.139  0.00  0.00    +0.000 C 
ATOM     10  O   UNL     1       2.116 -18.858  12.816  0.00  0.00    +0.000 OA
ENDBRANCH   3  10
ENDBRANCH   1   7
BRANCH   1  11
ATOM     11  O   UNL     1      -2.431 -15.798  15.166  0.00  0.00    +0.000 OA
BRANCH  11  12
ATOM     12  C   UNL     1      -1.989 -14.848  16.109  0.00  0.00    +0.000 A 
ATOM     13  C   UNL     1      -1.207 -13.755  15.726  0.00  0.00    +0.000 A 
ATOM     14  C   UNL     1      -0.867 -12.781  16.665  0.00  0.00    +0.000 A 
ATOM     15  C   UNL     1      -1.342 -12.876  17.971  0.00  0.00    +0.000 A 
ATOM     16  C   UNL     1      -2.154 -13.953  18.332  0.00  0.00    +0.000 A 
ATOM     17  C   UNL     1      -2.477 -14.948  17.412  0.00  0.00    +0.000 A 
BRANCH  16  18
ATOM     18  O   UNL     1      -2.671 -14.048  19.590  0.00  0.00    +0.000 OA
ATOM     19  H   UNL     1      -3.011 -14.950  19.718  0.00  0.00    +0.000 HD
ENDBRANCH  16  18
ENDBRANCH  11  12
ENDBRANCH   1  11
TORSDOF 5
ENDMDL
